# kinetic network from Venot et al. (2012) for the input of cantera
# Nspecies: 105
# thermodynamic data from literatures
# neglected reactions in datafile 4 and 10 because they are just reactions with specific 
# third bodies (number = 5+ 1 = 6)
# so total number of reactions are 963 - 6= 957

# update:
# There are no HNC reactions at all! delete it! 
# 104 species
# 957 reactions

# update
# adding CH3NH2, CH3NH, CH2NH2, CH2NH
# 108 species
# 1000 reactions


units(length = "cm", time = "s", quantity = "molec", act_energy = "K")

ideal_gas(name = "reaction network",
      elements = " O  H  C  N  He ",
      species = """ CO H2 H2O O2 H2O2 CH4 H2CO CH3OH CO2 CH3OOH C2H2 C2H4 C2H6 CH2CO
                    CH3CHO C2H5OH C2H5OOH CH3COOOH cC2H4O C CH 1CH2 3CH2 O3P H OH 
                    OOH CH3 HCO CH2OH CH3O CH3OO C2H C2H3 C2H5 CHCO CH2CHO CH3CO
                    C2H5O C2H4OOH C2H5OO CH3COOO CH3OCO CO2H 1C2H4OH 2C2H4OH
                    C3H8 C4H8Y C4H10 C2H5CHO C3H7OH C3H7O C4H9O C2H6CO C3H8CO C2H3CHO
                    1C3H7 2C3H7 1C4H9 2C4H9 O1D N2D
                    NO3 HONO2 CH3ONO CH3NO2 HNO2 CH3NO NO2 HONO HCNN HCNO N2O NCO HNO
                    HOCN NNH H2CN N4S CN HNCO NO NH NH2 HCN NH3 N2 N2O4 N2O3 N2H2 N2H3
                    N2H4 HNNO HNOH HNO3 NH2OH H2NO CNN H2CNO C2N2 HCNH HON NCN
                    He
                    CH3NH2 CH3NH CH2NH2 CH2NH """
                    ,
      reactions = "all",
      initial_state = state(temperature = 300.0,
                        pressure = OneAtm)    )


#-------------------------------------------------------------------------------
#  Species data 
#-------------------------------------------------------------------------------

species(name = "H2",
    atoms = " H:2 ",
    thermo = (
       NASA( [  200.00,  1000.00], [  2.344331120E+00,   7.980520750E-03, 
               -1.947815100E-05,   2.015720940E-08,  -7.376117610E-12,
               -9.179351730E+02,   6.830102380E-01] ),
       NASA( [ 1000.00,  6000.00], [  2.932865790E+00,   8.266079670E-04, 
               -1.464023350E-07,   1.541003590E-11,  -6.888044320E-16,
               -8.130655970E+02,  -1.024328870E+00] )
             )
    # note = "TPIS78"
       )

species(name = "H",
    atoms = " H:1 ",
    thermo = (
       NASA( [  200.00,  1000.00], [  2.500000000E+00,   0.000000000E+00, 
                0.000000000E+00,   0.000000000E+00,   0.000000000E+00,
                2.547365990E+04,  -4.466828530E-01] ),
       NASA( [ 1000.00,  6000.00], [  2.500002860E+00,  -5.653342140E-09, 
                3.632517230E-12,  -9.199497200E-16,   7.952607460E-20,
                2.547365890E+04,  -4.466984940E-01] )
             )
    # note = "L 5/93"
       )


species(name = "O3P",
    atoms = " O:1 ",
    thermo = (
       NASA( [  200.00,  1000.00], [  3.168267100E+00,  -3.279318840E-03, 
                6.643063960E-06,  -6.128066240E-09,   2.112659710E-12,
                2.912225920E+04,   2.051933460E+00] ),
       NASA( [ 1000.00,  6000.00], [  2.543636970E+00,  -2.731624860E-05, 
               -4.190295200E-09,   4.954818450E-12,  -4.795536940E-16,
                2.922601200E+04,   4.922294570E+00] )
             )
    # note = "L 1/90"
       )


species(name = "O2",
    atoms = " O:2 ",
    thermo = (
       NASA( [  200.00,  1000.00], [  3.782456360E+00,  -2.996734150E-03, 
                9.847302000E-06,  -9.681295080E-09,   3.243728360E-12,
               -1.063943560E+03,   3.657675730E+00] ),
       NASA( [ 1000.00,  6000.00], [  3.660960830E+00,   6.563655230E-04, 
               -1.411494850E-07,   2.057976580E-11,  -1.299132480E-15,
               -1.215977250E+03,   3.415361840E+00] )
             )
    # note = "TPIS89"
       )


species(name = "OH",
    atoms = " O:1  H:1 ",
    thermo = (
       NASA( [  200.00,  1000.00], [  3.992015430E+00,  -2.401317520E-03, 
                4.617938410E-06,  -3.881133330E-09,   1.364114700E-12,
                3.615080560E+03,  -1.039254580E-01] ),
       NASA( [ 1000.00,  6000.00], [  2.838646070E+00,   1.107255860E-03, 
               -2.939149780E-07,   4.205242470E-11,  -2.421690920E-15,
                3.943958520E+03,   5.844526620E+00] )
             )
    # note = "TPIS78"
       )


species(name = "H2O",
    atoms = " H:2  O:1 ",
    thermo = (
       NASA( [  200.00,  1000.00], [  4.198640560E+00,  -2.036434100E-03, 
                6.520402110E-06,  -5.487970620E-09,   1.771978170E-12,
               -3.029372670E+04,  -8.490322080E-01] ),
       NASA( [ 1000.00,  6000.00], [  2.677037870E+00,   2.973183290E-03, 
               -7.737696900E-07,   9.443366890E-11,  -4.269009590E-15,
               -2.988589380E+04,   6.882555710E+00] )
             )
    # note = "L 8/89"
       )


species(name = "OOH",
    atoms = " H:1  O:2 ",
    thermo = (
       NASA( [  200.00,  1000.00], [  4.301798010E+00,  -4.749120510E-03, 
                2.115828910E-05,  -2.427638940E-08,   9.292251240E-12,
                2.948080400E+02,   3.716662450E+00] ),
       NASA( [ 1000.00,  6000.00], [  4.172287280E+00,   1.881176470E-03, 
               -3.462774080E-07,   1.946578530E-11,   1.762542940E-16,
                6.181029640E+01,   2.957677460E+00] )
             )
    # note = "L 5/89"
       )


species(name = "H2O2",
    atoms = " H:2  O:2 ",
    thermo = (
       NASA( [  200.00,  1000.00], [  4.276112690E+00,  -5.428224170E-04, 
                1.673357010E-05,  -2.157708130E-08,   8.624543630E-12,
               -1.775429890E+04,   3.435050740E+00] ),
       NASA( [ 1000.00,  6000.00], [  4.573335370E+00,   4.049840700E-03, 
               -1.294794790E-06,   1.972817100E-10,  -1.134028460E-14,
               -1.805481210E+04,   7.042784880E-01] )
             )
    # note = "L 2/93"
       )


species(name = "C",
    atoms = " C:1 ",
    thermo = (
       NASA( [  200.00,  1000.00], [  2.554239550E+00,  -3.215377240E-04, 
                7.337922450E-07,  -7.322348890E-10,   2.665214460E-13,
                8.544388320E+04,   4.531308480E+00] ),
       NASA( [ 1000.00,  6000.00], [  2.605582980E+00,  -1.959343350E-04, 
                1.067372190E-07,  -1.642393900E-11,   8.187057520E-16,
                8.541294430E+04,   4.192386810E+00] )
             )
    # note = "L11/88"
       )


species(name = "CH",
    atoms = " C:1  H:1 ",
    thermo = (
       NASA( [  200.00,  1000.00], [  3.489816650E+00,   3.238355410E-04, 
               -1.688990650E-06,   3.162173270E-09,  -1.406090670E-12,
                7.079729340E+04,   2.084011080E+00] ),
       NASA( [ 1000.00,  6000.00], [  2.520906270E+00,   1.765372350E-03, 
               -4.614757050E-07,   5.928854720E-11,  -3.347319620E-15,
                7.113143630E+04,   7.405321630E+00] )
             )
    # note = "TPIS79"
       )

species(name = "3CH2",
    atoms = " C:1  H:2 ",
    thermo = (
       NASA( [  200.00,  1000.00], [ 3.71757846E+00, 1.27391260E-03, 
              2.17347251E-06, -3.48858500E-09, 1.65208866E-12, 
              4.58723866E+04, 1.75297945E+00 ] ),
       NASA( [ 1000.00,  6000.00], [  3.14631886E+00, 3.03671259E-03, 
                -9.96474439E-07, 1.50483580E-10, -8.57335515E-15,
                4.60412605E+04, 4.72341711E+00] )
             ),
    transport = gas_transport(
                     geom = "linear",
                     diam =     3.80,
                     well_depth =   144.00),
    note = "L S/93"
       )

species(name = "1CH2",
    atoms = " C:1  H:2 ",
    thermo = (
       NASA( [  200.00,  1000.00], [  4.19331325E+00, -2.33105184E-03, 
               8.15676451E-06, -6.62985981E-09, 1.93233199E-12,
               5.03662246E+04, -7.46734310E-01] ),
       NASA( [ 1000.00,  6000.00], [  3.13501686E+00, 2.89593926E-03, 
              -8.16668090E-07, 1.13572697E-10, -6.36262835E-15,
              5.05040504E+04, 4.06030621E+00] )
             ),
    transport = gas_transport(
                     geom = "linear",
                     diam =     3.80,
                     well_depth =   144.00),
    note = "L S/93"
       )

species(name = "CH3",
    atoms = " C:1  H:3 ",
    thermo = (
       NASA( [  200.00,  1000.00], [  3.673590400E+00,   2.010951750E-03, 
                5.730218560E-06,  -6.871174250E-09,   2.543857340E-12,
                1.644499880E+04,   1.604564330E+00] ),
       NASA( [ 1000.00,  6000.00], [  2.968660330E+00,   5.807175460E-03, 
               -1.977785340E-06,   3.072787520E-10,  -1.788538970E-14,
                1.653888690E+04,   4.779445030E+00] )
             )
    # note = "L11/89"
       )

species(name = "CH4",
    atoms = " C:1  H:4 ",
    thermo = (
       NASA( [  200.00,  1000.00], [  5.149876130E+00,  -1.367097880E-02, 
                4.918005990E-05,  -4.847430260E-08,   1.666939560E-11,
               -1.024664760E+04,  -4.641303760E+00] ),
       NASA( [ 1000.00,  6000.00], [  1.635526430E+00,   1.008427950E-02, 
               -3.369162540E-06,   5.349586670E-10,  -3.155188330E-14,
               -1.000564550E+04,   9.993133260E+00] )
             )
    # note = "L 8/88"
       )

species(name = "CO",
    atoms = " C:1  O:1 ",
    thermo = (
       NASA( [  200.00,  1000.00], [  3.579533470E+00,  -6.103536800E-04, 
                1.016814330E-06,   9.070058840E-10,  -9.044244990E-13,
               -1.434408600E+04,   3.508409280E+00] ),
       NASA( [ 1000.00,  6000.00], [  3.048485830E+00,   1.351728180E-03, 
               -4.857940750E-07,   7.885364860E-11,  -4.698074890E-15,
               -1.426611710E+04,   6.017097900E+00] )
             )
    # note = "TPIS79"
       )

species(name = "CO2",
    atoms = " C:1  O:2 ",
    thermo = (
       NASA( [  200.00,  1000.00], [  2.356773520E+00,   8.984596770E-03, 
               -7.123562690E-06,   2.459190220E-09,  -1.436995480E-13,
               -4.837196970E+04,   9.901052220E+00] ),
       NASA( [ 1000.00,  6000.00], [  4.636594930E+00,   2.741319910E-03, 
               -9.958285310E-07,   1.603730110E-10,  -9.161034680E-15,
               -4.902493410E+04,  -1.935348550E+00] )
             )
    # note = "L 7/88"
       )

species(name = "HCO",
    atoms = " H:1  C:1  O:1 ",
    thermo = (
       NASA( [  200.00,  1000.00], [  4.221185840E+00,  -3.243925320E-03, 
                1.377994460E-05,  -1.331440930E-08,   4.337688650E-12,
                3.839564960E+03,   3.394372430E+00] ),
       NASA( [ 1000.00,  6000.00], [  3.648962090E+00,   3.080908190E-03, 
               -1.124298760E-06,   1.863080850E-10,  -1.139518280E-14,
                3.712090480E+03,   5.061474060E+00] )
             )
    # note = "L12/89"
       )


species(name = "H2CO",
    atoms = " H:2  C:1  O:1 ",
    thermo = (
       NASA( [  200.00,  1000.00], [ 4.79372312E+00, -9.90833322E-03, 
               3.73219990E-05, -3.79285237E-08, 1.31772641E-11, 
              -1.43791953E+04, 6.02798058E-01 ] ),
       NASA( [ 1000.00,  6000.00], [  3.16952665E+00, 6.19320560E-03, 
              -2.25056366E-06, 3.65975660E-10, -2.20149458E-14,
               -1.45486831E+04, 6.04207898E+00] )
             ),
    transport = gas_transport(
                     geom = "nonlinear",
                     diam =     3.59,
                     well_depth =   498.00,
                     rot_relax =     2.00),
    note = "L 8/88"
       )

species(name = "CH2OH",
    atoms = " C:1  H:3  O:1 ",
    thermo = (
       NASA( [  200.00,  1000.00], [  3.863889180E+00,   5.596723040E-03, 
                5.932717910E-06,  -1.045320120E-08,   4.369672780E-12,
               -2.505013670E+03,   5.473022430E+00] ),
       NASA( [ 1000.00,  6000.00], [  4.676256390E+00,   6.564060140E-03, 
               -2.265254710E-06,   3.556024810E-10,  -2.086261900E-14,
               -2.892485740E+03,   4.877370050E-01] )
             )
    # note = "L12/92"
       )


species(name = "CH3O",
    atoms = " C:1  H:3  O:1 ",
    thermo = (
       NASA( [  200.00,  1000.00], [  3.265248940E+00,   3.303001170E-03, 
                1.704939640E-05,  -2.271044760E-08,   8.807565200E-12,
                3.332814880E+02,   7.425680400E+00] ),
       NASA( [ 1000.00,  6000.00], [  4.266765380E+00,   7.853801100E-03, 
               -2.837399430E-06,   4.590396590E-10,  -2.744260840E-14,
               -3.400732270E+02,   3.856374470E-01] )
             )
    # note = "L10/92"
       )

species(name = "CH3OH",
    atoms = " C:1  H:4  O:1 ",
    thermo = (
       NASA( [  200.00,  1000.00], [  5.715395820E+00,  -1.523091290E-02, 
                6.524411550E-05,  -7.108068890E-08,   2.613526980E-11,
               -2.564276560E+04,  -1.504098230E+00] ),
       NASA( [ 1000.00,  6000.00], [  3.601344860E+00,   1.024309540E-02, 
               -3.599855170E-06,   5.725059860E-10,  -3.391176400E-14,
               -2.599719100E+04,   4.705122530E+00] )
             )
    # note = "L 8/88"
       )

species(name = "C2H",
    atoms = " C:2  H:1 ",
    thermo = (
       NASA( [  200.00,  1000.00], [  2.889657330E+00,   1.340996110E-02, 
               -2.847695010E-05,   2.947910450E-08,  -1.093315110E-11,
                6.683939320E+04,   6.222964380E+00] ),
       NASA( [ 1000.00,  6000.00], [  3.361183950E+00,   4.389897240E-03, 
               -1.627722180E-06,   2.605566630E-10,  -1.529393050E-14,
                6.704922140E+04,   5.571275420E+00] )
             )
    # note = "L 1/91"
       )

species(name = "C2H2",
    atoms = " C:2  H:2 ",
    thermo = (
       NASA( [  200.00,  1000.00], [  8.086810940E-01,   2.336156290E-02, 
               -3.551718150E-05,   2.801524370E-08,  -8.500729740E-12,
                2.642898070E+04,   1.393970510E+01] ),
       NASA( [ 1000.00,  6000.00], [  4.658785040E+00,   4.883965470E-03, 
               -1.608287750E-06,   2.469742260E-10,  -1.386056800E-14,
                2.575940440E+04,  -3.998347720E+00] )
             )
    # note = "L 1/91"
       )

species(name = "C2H3",
    atoms = " C:2  H:3 ",
    thermo = (
       NASA( [  200.00,  1000.00], [  3.212466450E+00,   1.514791620E-03, 
                2.592094120E-05,  -3.576578470E-08,   1.471508730E-11,
                3.485984680E+04,   8.510540250E+00] ),
       NASA( [ 1000.00,  6000.00], [  4.351050550E+00,   7.493300910E-03, 
               -2.643145860E-06,   4.212859060E-10,  -2.498961190E-14,
                3.415461810E+04,   5.716765290E-01] )
             )
    # note = "L 2/92"
       )

species(name = "C2H4",
    atoms = " C:2  H:4 ",
    thermo = (
       NASA( [  200.00,  1000.00], [  3.959201480E+00,  -7.570522470E-03, 
                5.709902920E-05,  -6.915887530E-08,   2.698843730E-11,
                5.089775930E+03,   4.097330960E+00] ),
       NASA( [ 1000.00,  6000.00], [  3.991827610E+00,   1.048339100E-02, 
               -3.717213850E-06,   5.946285140E-10,  -3.536305260E-14,
                4.268658190E+03,  -2.690521510E-01] )
             )
    # note = "L 1/91"
       )


species(name = "C2H5",
    atoms = " C:2  H:5 ",
    thermo = (
       NASA( [  200.00,  1000.00], [  4.306465680E+00,  -4.186588920E-03, 
                4.971428070E-05,  -5.991266060E-08,   2.305090040E-11,
                1.284162650E+04,   4.707209240E+00] ),
       NASA( [ 1000.00,  6000.00], [  4.288005350E+00,   1.243373740E-02, 
               -4.413838290E-06,   7.065269430E-10,  -4.203418560E-14,
                1.205642000E+04,   8.452996230E-01] )
             )
    # note = "L12/92"
       )

species(name = "C2H6",
    atoms = " C:2  H:6 ",
    thermo = (
       NASA( [  200.00,  1000.00], [  4.291424920E+00,  -5.501542700E-03, 
                5.994382880E-05,  -7.084662850E-08,   2.686857710E-11,
               -1.152220550E+04,   2.666823160E+00] ),
       NASA( [ 1000.00,  6000.00], [  4.046666740E+00,   1.535387660E-02, 
               -5.470393210E-06,   8.778262280E-10,  -5.231673050E-14,
               -1.244735120E+04,  -9.686836070E-01] )
             )
    # note = "L 8/88"
       )

species(name = "CHCO",
    atoms = " H:1  C:2  O:1 ",
    thermo = (
       NASA( [  300.00,  1000.00], [  1.87607969E+00, 2.21205418E-02, 
                -3.58869325E-05, 3.05402541E-08, -1.01281069E-11, 
                2.01633840E+04, 1.36968290E+01] ),
       NASA( [ 1000.00,  4000.00], [  5.91479333E+00, 3.71408730E-03, 
              -1.30137010E-06, 2.06473345E-10, -1.21476759E-14,
               1.93596301E+04, -5.50567269E+00] )
             ),
    transport = gas_transport(
                     geom = "nonlinear",
                     diam =     2.50,
                     well_depth =   150.00,
                     rot_relax =     1.00),
    note = "SRIC91"
       )

species(name = "CH2CO",
    atoms = " C:2  H:2  O:1 ",
    thermo = (
       NASA( [  200.00,  1000.00], [  2.135836300E+00,   1.811887210E-02, 
               -1.739474740E-05,   9.343975680E-09,  -2.014576150E-12,
               -7.042918040E+03,   1.221564800E+01] ),
       NASA( [ 1000.00,  6000.00], [  5.757933070E+00,   6.349114130E-03, 
               -2.258148350E-06,   3.620267330E-10,  -2.156512040E-14,
               -7.978783840E+03,  -6.107721500E+00] )
             )
    # note = "L 5/90"
       )

species(name = "N4S",
    atoms = " N:1 ",
    thermo = (
       NASA( [  200.00,  1000.00], [  2.500000000E+00,   0.000000000E+00, 
                0.000000000E+00,   0.000000000E+00,   0.000000000E+00,
                5.610463780E+04,   4.193909320E+00] ),
       NASA( [ 1000.00,  6000.00], [  2.415942930E+00,   1.748906000E-04, 
               -1.190236670E-07,   3.022623870E-11,  -2.036097900E-15,
                5.613377480E+04,   4.649609860E+00] )
             )
    # note = "L 6/88"
       )

species(name = "NH",
    atoms = " N:1  H:1 ",
    thermo = (
       NASA( [  200.00,  1000.00], [  3.492908500E+00,   3.117919800E-04, 
               -1.489048400E-06,   2.481644200E-09,  -1.035696700E-12,
                4.188062900E+04,   1.848327800E+00] ),
       NASA( [ 1000.00,  6000.00], [  2.783692800E+00,   1.329843000E-03, 
               -4.247804700E-07,   7.834850100E-11,  -5.504447000E-15,
                4.212084800E+04,   5.740779900E+00] )
             ),
    transport = gas_transport(
                     geom = "linear",
                     diam =     2.65,
                     well_depth =    80.00,
                     rot_relax =     4.00),
    note = "And94"
       )

species(name = "NH2",
    atoms = " N:1  H:2 ",
    thermo = (
       NASA( [  200.00,  1000.00], [  4.205568570E+00,  -2.135613630E-03, 
                7.268513010E-06,  -5.930698760E-09,   1.806909780E-12,
                2.153522310E+04,  -1.466627700E-01] ),
       NASA( [ 1000.00,  6000.00], [  2.847689920E+00,   3.142800350E-03, 
               -8.986414580E-07,   1.303182840E-10,  -7.488129260E-15,
                2.182390490E+04,   6.471654330E+00] )
             )
    # note = "L12/89"
       )

species(name = "NH3",
    atoms = " N:1  H:3 ",
    thermo = (
       NASA( [  200.00,  1000.00], [  4.301778080E+00,  -4.771273300E-03, 
                2.193416190E-05,  -2.298564890E-08,   8.289922680E-12,
               -6.748063940E+03,  -6.906443930E-01] ),
       NASA( [ 1000.00,  6000.00], [  2.717096920E+00,   5.568563380E-03, 
               -1.768863960E-06,   2.674172600E-10,  -1.527314190E-14,
               -6.584519890E+03,   6.092898370E+00] )
             )
    # note = "TPIS89"
       )

species(name = "NNH",
    atoms = " N:2  H:1 ",
    thermo = (
       NASA( [  200.00,  1000.00], [  4.25474632E+00, -3.45098298E-03, 
              1.37788699E-05, -1.33263744E-08, 4.41023397E-12,
               2.87932080E+04, 3.28551762E+00] ),
       NASA( [ 1000.00,  6000.00], [  3.42744423E+00, 3.23295234E-03, 
               -1.17296299E-06, 1.90508356E-10, -1.14491506E-14,
               2.87676026E+04, 6.39209233E+00] )
             ),
    transport = gas_transport(
                     geom = "nonlinear",
                     diam =     3.80,
                     well_depth =    71.40,
                     rot_relax =     1.00),
    note = "T07/93"
       )

species(name = "NO",
    atoms = " N:1  O:1 ",
    thermo = (
       NASA( [  200.00,  1000.00], [  4.218598960E+00,  -4.639881240E-03, 
                1.104430490E-05,  -9.340555070E-09,   2.805548740E-12,
                9.845099640E+03,   2.280610010E+00] ),
       NASA( [ 1000.00,  6000.00], [  3.260712340E+00,   1.191011350E-03, 
               -4.291226460E-07,   6.944814630E-11,  -4.032956810E-15,
                9.921431320E+03,   6.369005180E+00] )
             )
    # note = "TPIS89"
       )

species(name = "NO2",
    atoms = " N:1  O:2 ",
    thermo = (
       NASA( [  200.00,  1000.00], [  3.944039070E+00,  -1.585474440E-03, 
                1.665789840E-05,  -2.047544780E-08,   7.835032650E-12,
                2.896598650E+03,   6.311962250E+00] ),
       NASA( [ 1000.00,  6000.00], [  4.884744290E+00,   2.172416390E-03, 
               -8.280790200E-07,   1.574772930E-10,  -1.051105490E-14,
                2.316484620E+03,  -1.173570750E-01] )
             )
    # note = "L 7/88"
       )

species(name = "N2O",
    atoms = " N:2  O:1 ",
    thermo = (
       NASA( [  200.00,  1000.00], [  2.257168600E+00,   1.130463380E-02, 
               -1.367103500E-05,   9.681620980E-09,  -2.930555830E-12,
                8.741771460E+03,   1.075791540E+01] ),
       NASA( [ 1000.00,  6000.00], [  4.823188730E+00,   2.626852790E-03, 
               -9.584260580E-07,   1.599912960E-10,  -9.774169390E-15,
                8.073356620E+03,  -2.202366000E+00] )
             )
    # note = "L 7/88"
       )

species(name = "HNO",
    atoms = " H:1  N:1  O:1 ",
    thermo = (
       NASA( [  200.00,  1000.00], [  4.535258820E+00,  -5.685469100E-03, 
                1.851999760E-05,  -1.718836740E-08,   5.558330900E-12,
                1.103988050E+04,   1.743147340E+00] ),
       NASA( [ 1000.00,  6000.00], [  3.165547620E+00,   3.000051320E-03, 
               -3.943502820E-07,  -3.857874910E-11,   7.080919310E-15,
                1.119441690E+04,   7.647646950E+00] )
             )
    # note = "L12/89"
       )

species(name = "CN",
    atoms = " C:1  N:1 ",
    thermo = (
       NASA( [  200.00,  1000.00], [  3.612935020E+00,  -9.555132750E-04, 
                2.144297650E-06,  -3.151632700E-10,  -4.643035460E-13,
                5.190079580E+04,   3.980499470E+00] ),
       NASA( [ 1000.00,  6000.00], [  3.748183330E+00,   3.917532710E-05, 
                2.997029960E-07,  -6.927045320E-11,   4.461376910E-15,
                5.172784190E+04,   2.774690440E+00] )
             )
    # note = "TPIS91"
       )

species(name = "HCN",
    atoms = " H:1  C:1  N:1 ",
    thermo = (
       NASA( [  200.00,  1000.00], [  2.259011230E+00,   1.005105910E-02, 
               -1.335149110E-05,   1.009208820E-08,  -3.008820480E-12,
                1.521584950E+04,   8.916345900E+00] ),
       NASA( [ 1000.00,  6000.00], [  3.802317330E+00,   3.146300090E-03, 
               -1.063156980E-06,   1.661853950E-10,  -9.798917890E-15,
                1.491048290E+04,   1.575035840E+00] )
             )
    # note = "L 7/88"
       )

species(name = "H2CN",
    atoms = " H:2  C:1  N:1 ",
    thermo = (
       NASA( [  300.00,  1000.00], [  3.97799555E+00, -3.43275801E-03, 
           2.59134260E-05, -3.04692171E-08, 1.16272717E-11, 
           2.74854081E+04, 4.43067396E+00] ),
       NASA( [ 1000.00,  6000.00], [  3.80315578E+00, 5.47197362E-03, 
             -1.95314875E-06, 3.13362403E-10, -1.86249384E-14,
             2.71302747E+04, 3.31759436E+00] )
             ),
    transport = gas_transport(
                     geom = "linear",
                     diam =     3.63,
                     well_depth =   569.00,
                     rot_relax =     1.00),
    note = "41687"
       )

species(name = "HCNN",
    atoms = " C:1  N:2  H:1 ",
    thermo = (
       NASA( [  300.00,  1000.00], [  2.524319400E+00,   1.596061900E-02, 
               -1.881635400E-05,   1.212554000E-08,  -3.235737800E-12,
                5.426198400E+04,   1.167587000E+01] ),
       NASA( [ 1000.00,  5000.00], [  5.894636200E+00,   3.989595900E-03, 
               -1.598238000E-06,   2.924939500E-10,  -2.009468600E-14,
                5.345294100E+04,  -5.103050200E+00] )
             ),
    transport = gas_transport(
                     geom = "nonlinear",
                     diam =     2.50,
                     well_depth =   150.00,
                     rot_relax =     1.00),
    note = "SRI/94"
       )

species(name = "HCNO",
    atoms = " H:1  N:1  C:1  O:1 ",
    thermo = (
       NASA( [  300.00,  1382.00], [  2.647279890E+00,   1.275053420E-02, 
               -1.047942360E-05,   4.414328360E-09,  -7.575214660E-13,
                1.929902520E+04,   1.073329720E+01] ),
       NASA( [ 1382.00,  5000.00], [  6.598604560E+00,   3.027786260E-03, 
               -1.077043460E-06,   1.716665280E-10,  -1.014393910E-14,
                1.796613390E+04,  -1.033065990E+01] )
             ),
    transport = gas_transport(
                     geom = "nonlinear",
                     diam =     3.83,
                     well_depth =   232.40,
                     rot_relax =     1.00),
    note = "BDEA94"
       )

species(name = "HOCN",
    atoms = " H:1  N:1  C:1  O:1 ",
    thermo = (
       NASA( [  300.00,  1368.00], [  3.786049520E+00,   6.886679220E-03, 
               -3.214878640E-06,   5.171957670E-10,   1.193607880E-14,
               -2.826984000E+03,   5.632921620E+00] ),
       NASA( [ 1368.00,  5000.00], [  5.897848850E+00,   3.167893930E-03, 
               -1.118010640E-06,   1.772431440E-10,  -1.043391770E-14,
               -3.706533310E+03,  -6.181678250E+00] )
             ),
    transport = gas_transport(
                     geom = "nonlinear",
                     diam =     3.83,
                     well_depth =   232.40,
                     rot_relax =     1.00),
    note = "BDEA94"
       )

species(name = "HNCO",
    atoms = " H:1  N:1  C:1  O:1 ",
    thermo = (
       NASA( [  300.00,  1478.00], [  3.630963170E+00,   7.302823570E-03, 
               -2.280500030E-06,  -6.612712980E-10,   3.622357520E-13,
               -1.558736360E+04,   6.194577270E+00] ),
       NASA( [ 1478.00,  5000.00], [  6.223951340E+00,   3.178640040E-03, 
               -1.093787550E-06,   1.707351630E-10,  -9.950219550E-15,
               -1.665993440E+04,  -8.382247410E+00] )
             ),
    transport = gas_transport(
                     geom = "nonlinear",
                     diam =     3.83,
                     well_depth =   232.40,
                     rot_relax =     1.00),
    note = "BDEA94"
       )

species(name = "NCO",
    atoms = " N:1  C:1  O:1 ",
    thermo = (
       NASA( [  200.00,  1000.00], [  2.826930800E+00,   8.805168800E-03, 
               -8.386613400E-06,   4.801696400E-09,  -1.331359500E-12,
                1.468247700E+04,   9.550464600E+00] ),
       NASA( [ 1000.00,  6000.00], [  5.152184500E+00,   2.305176100E-03, 
               -8.803315300E-07,   1.478909800E-10,  -9.097799600E-15,
                1.400412300E+04,  -2.544266000E+00] )
             ),
    transport = gas_transport(
                     geom = "linear",
                     diam =     3.83,
                     well_depth =   232.40,
                     rot_relax =     1.00),
    note = "EA 93"
       )

species(name = "N2",
    atoms = " N:2 ",
    thermo = (
       NASA( [  200.00,  1000.00], [  3.531005280E+00,  -1.236609870E-04, 
               -5.029994370E-07,   2.435306120E-09,  -1.408812350E-12,
               -1.046976280E+03,   2.967474680E+00] ),
       NASA( [ 1000.00,  6000.00], [  2.952576260E+00,   1.396900570E-03, 
               -4.926316910E-07,   7.860103670E-11,  -4.607553210E-15,
               -9.239486450E+02,   5.871892520E+00] )
             )
    # note = "TPIS78"
       )


species(name = "1C3H7",
    atoms = " C:3  H:7 ",
    thermo = (
       NASA( [  200.00,  1000.00], [  4.032399960E+00,   3.427283120E-03, 
                6.143444200E-05,  -8.376463380E-08,   3.408577760E-11,
                1.033938390E+04,   8.774280790E+00] ),
       NASA( [ 1000.00,  6000.00], [  6.964684620E+00,   1.754519460E-02, 
               -6.233700550E-06,   9.985297350E-10,  -5.943947930E-14,
                8.542443580E+03,  -1.148314780E+01] )
             )
    # note = "L 6/90"
       )

species(name = "2C3H7",
    atoms = " C:3  H:7 ",
    thermo = (
       NASA( [  200.00,  1000.00], [  5.408728720E+00,  -8.552218250E-03, 
                8.421784910E-05,  -1.009426830E-07,   3.869144790E-11,
                9.426009560E+03,   3.623225040E+00] ),
       NASA( [ 1000.00,  6000.00], [  5.751258820E+00,   1.876057620E-02, 
               -6.701919760E-06,   1.077518710E-09,  -6.430908850E-14,
                7.979772930E+03,  -4.913593550E+00] )
             )
    # note = "L 9/85"
       )


species(name = "C3H8",
    atoms = " C:3  H:8 ",
    thermo = (
       NASA( [  200.00,  1000.00], [  4.211026200E+00,   1.715998030E-03, 
                7.061834720E-05,  -9.195941160E-08,   3.644213720E-11,
               -1.438121060E+04,   5.609304910E+00] ),
       NASA( [ 1000.00,  6000.00], [  6.667893630E+00,   2.061202140E-02, 
               -7.365530270E-06,   1.184407610E-09,  -7.069532100E-14,
               -1.627485210E+04,  -1.318595030E+01] )
             )
    # note = "L 6/90"
       )

species(name = "CH2CHO",
    atoms = " O:1  H:3  C:2 ",
    thermo = (
       NASA( [  300.00,  1000.00], [  3.409062000E+00,   1.073857400E-02, 